test/test_files/validation_tests/case1951rte_res.m
function mpc = case1951rte_res
%CASE1951RTE_RES

%% MATPOWER Case Format : Version 2
mpc.version = '2';

%%-----  Power Flow Data  -----%%
%% system MVA base
mpc.baseMVA = 100;

%% bus data
%	bus_i	type	Pd	Qd	Gs	Bs	area	Vm	Va	baseKV	zone	Vmax	Vmin
mpc.bus = [
	1	1	36.4	19.5	0	0	1	1.04156438	-18.7605375	225	1	1.08889	0.888889;
	2	1	0	0	0	0	1	1.08106794	-5.18369634	380	1	1.10263	1.04841;
	3	1	245.2	16.4	0	0	1	1.0656352	-23.625092	225	1	1.08444	1.00444;
	4	1	0	0	0	0	1	1.07515462	-8.37851316	150	1	1.10667	0.9;
	5	1	51.8	13.5	0	0	1	1.07006503	-11.7089935	225	1	1.08889	0.933333;
	6	1	36.6	11.6	0	0	1	1.06761706	-12.7555923	225	1	1.08889	0.933333;
	7	1	0	0	0	0	1	1.08498144	-10.6561516	380	1	1.10526	1.03947;
	8	1	0	0	0	0	1	1.08034677	-12.008935	380	1	1.10526	1.03947;
	9	1	0	0	0	0	1	1.07715395	-28.5404996	225	1	1.09035	1.00444;
	10	1	193.4	48.9	0	0	1	1.03576701	-15.9359553	225	1	1.08889	0.933333;
	11	1	57.7	14.6	0	0	1	1.06282947	-29.5313783	225	1	1.08889	1.00444;
	12	1	27.8	24.4	0	0	1	1.07585852	-25.1250975	225	1	1.08889	1.00444;
	13	1	177.5	52.5	0	0	1	1.06261654	-29.5333218	225	1	1.08889	1.00444;
	14	1	75.8	7.3	0	0	1	1.05844345	-15.7274321	225	1	1.08252	0.95;
	15	1	0	0	0	0	1	1.08790993	-14.1191042	225	1	1.08889	1.00444;
	16	1	0	0	0	0	1	1.08791035	-14.1191071	225	1	1.08889	1.00444;
	17	1	66.2	0.9	0	0	1	1.05909858	-15.6001785	225	1	1.08889	0.888889;
	18	1	12.3	7.1	0	0	1	1.07270734	-3.32994458	225	1	1.09633	0.986667;
	19	1	67.9	23	0	0	1	1.04710477	-26.5178168	225	1	1.08889	1.00444;
	20	1	29.2	7.2	0	0	1	1.04717004	-26.5150108	225	1	1.08889	1.00444;
	21	1	77.8	31.2	0	0	1	1.06072447	-26.4664835	225	1	1.08889	1.00444;
	22	1	105.6	22.8	0	0	1	1.04639908	-11.4421554	225	1	1.08889	0.986667;
	23	1	41.1	2.7	0	0	1	1.04575021	-15.6103333	225	1	1.08889	0.888889;
	25	1	56.2	8.1	0	0	1	1.05831954	-29.237684	225	1	1.08444	1.00889;
	26	1	29.3	6.4	0	0	1	1.05865407	-29.1899651	225	1	1.08444	1.00889;
	27	1	102.1	38	0	0	1	1.04967389	-14.6525649	225	1	1.08889	0.933333;
	28	1	172.1	40	0	0	1	1.06569731	-25.8735011	225	1	1.08889	1.00444;
	29	1	0	0	0	0	1	1.08115206	-5.17193258	380	1	1.10526	1.04842;
	30	1	0	0	0	0	1	1.08119505	-5.17597624	380	1	1.10526	1.04842;
	31	1	36.2	31.7	0	0	1	1.0636679	-10.0261569	225	1	1.08444	1.00889;
	33	1	133.2	20.1	0	0	1	1.06618321	-17.6807542	225	1	1.08444	1.00889;
	34	1	89.4	29.6	0	0	1	1.02444176	-27.4213251	225	1	1.08889	1.00444;
	2013	1	0	0	0	0	1	1.06403148	-29.3493218	225	1	1.08889	1.00444;
	35	1	10.3	-0.4	0	0	1	1.06610649	-14.151961	150	1	1.08	0.966667;
	36	1	22.3	6.7	0	80	1	1.04297751	-21.062659	225	1	1.09212	1;
	37	1	0	0	0	0	1	1.05139194	-17.7697554	380	1	1.10526	1.04785;
	38	1	144.2	18.9	0	0	1	1.01387729	-15.752765	225	1	1.08889	0.986667;
	39	1	117.8	31.5	0	0	1	1.06019205	-15.3961951	225	1	1.08889	0.968889;
	40	1	194.8	53.6	0	0	1	1.0769765	-12.2197168	380	1	1.10526	1;
	41	1	64.7	12.6	0	0	1	1.05178141	-14.0985074	225	1	1.08889	0.933333;
	42	1	44.6	15.6	0	0	1	1.05630889	-13.9328276	225	1	1.08889	0.888889;
	43	1	46.9	11.7	0	0	1	1.05646065	-13.938156	225	1	1.08889	0.888889;
	44	1	381.3	62.5	0	0	1	1.06911964	-32.0998486	225	1	1.08496	1.00444;
	45	1	161.5	-38.5	0	0	1	1.06614528	-28.5768516	225	1	1.08889	1.00444;
	46	2	0	0	0	0	1	1.107	-18.072141	150	1	1.10843	0.9;
	47	1	0	0	0	0	1	1.05354741	-26.6612978	225	1	1.08889	1.00444;
	48	1	0	0	0	0	1	1.05354719	-26.6612966	225	1	1.08889	1.00444;
	49	1	123.5	43.4	0	0	1	1.05354593	-26.6612896	225	1	1.08889	1.00444;
	50	1	10	3.7	0	0	1	1.06578335	-26.4434611	225	1	1.08889	1.00444;
	51	1	0	0	0	0	1	1.05746282	-20.4854484	225	1	1.08889	1;
	52	1	74.6	28	0	0	1	1.04135352	-16.3222901	225	1	1.08889	0.888889;
	53	1	160.2	38.2	0	0	1	1.06973141	-8.50140547	225	1	1.08889	0.968889;
	54	1	0	0	0	0	1	1.08890401	-4.6422828	380	1	1.10526	1;
	55	1	31	11	0	0	1	1.06407623	-16.1231868	225	1	1.08444	1.00889;
	56	1	14.7	-1	0	0	1	1.06440602	-16.1076116	225	1	1.08444	1.00889;
	1827	1	201.2	11.7	0	0	1	1.05483935	-31.0020063	225	1	1.08889	1.00444;
	57	1	57	3	0	0	1	1.0806565	-17.7415219	225	1	1.08945	0.933333;
	58	2	0	0	0	0	1	1.107	-18.1930852	150	1	1.10862	0.9;
	59	1	55.4	19.7	0	0	1	1.07760874	-15.802143	225	1	1.08444	1.00889;
	60	1	55.7	41.6	0	0	1	1.07726643	-15.7989909	225	1	1.08444	1.00889;
	61	1	0	0	0	0	1	1.0747733	-16.0337631	225	1	1.08889	0.977778;
	62	1	16.4	4.9	0	0	1	1.05699956	-13.1681981	225	1	1.08889	0.888889;
	63	1	1.6	12.7	0	0	1	1.07829683	-12.6395834	225	1	1.08889	0.933333;
	64	1	29.7	12	0	0	1	1.0744217	-25.4217176	225	1	1.08889	1.00444;
	65	1	54.7	13.6	0	0	1	1.07655969	-28.628764	225	1	1.08889	1.00444;
	66	1	-21.9	-5.1	0	0	1	1.05838711	-20.6923456	225	1	1.08889	1;
	67	1	29.2	-2.5	0	0	1	1.07592569	-19.75323	225	1	1.08889	0.986667;
	68	1	0	0	0	80	1	1.06446453	-13.70254	225	1	1.08889	0.888889;
	69	1	0	0	0	0	1	1.04917902	-15.1066055	225	1	1.08889	0.888889;
	70	1	0	0	0	0	1	1.07332678	-10.1037673	380	1	1.10526	1.01316;
	71	1	76.3	14.3	0	0	1	1.04641816	-26.7134179	225	1	1.08889	1.00444;
	72	1	29	5	0	0	1	1.06704471	-25.5768096	225	1	1.08889	1.00444;
	73	1	0	0	0	0	1	1.05515064	-11.3556698	225	1	1.08889	0.977778;
	74	1	0	0	0	0	1	1.05516063	-11.355005	225	1	1.08889	0.977778;
	75	1	182.4	31.2	0	0	1	1.05235831	-12.1905884	225	1	1.08444	1.00889;
	76	1	0	0	0	0	1	1.07808736	-27.9048256	225	1	1.08444	1.00444;
	77	1	0	0	0	0	1	1.09685042	-21.8573751	380	1	1.10263	1.04211;
	78	1	116.1	17.6	0	0	1	1.07774646	-27.9642853	225	1	1.08444	1.00444;
	79	1	-7.4	0.9	0	0	1	1.07687015	-24.9582889	225	1	1.08936	1.00444;
	80	1	14	12.6	0	0	1	1.07673646	-24.9685653	225	1	1.08936	1.00444;
	81	1	48.7	2.9	0	0	1	1.08188741	-5.91722258	225	1	1.08889	0.888889;
	82	1	27.9	3.3	0	0	1	1.04945467	-16.2033153	225	1	1.08124	0.95;
	83	1	61.9	19.7	0	0	1	1.0716185	-7.24636253	225	1	1.08889	0.888889;
	84	1	158.1	-16.5	0	0	1	1.034934	-22.1996323	225	1	1.08889	1;
	85	1	0	0	0	0	1	1.02554525	-16.8542257	225	1	1.08889	1;
	86	1	403.7	124.8	0	0	1	1.06351772	-16.7985533	380	1	1.10526	1.0507;
	87	1	108.6	44.4	0	0	1	1.03705627	-17.2941265	225	1	1.08889	1;
	88	1	140.7	36.8	0	0	1	1.05548392	-20.9611289	225	1	1.08889	1;
	89	2	0	0	0	0	1	1.042	-21.4174242	150	1	1.1	0.9;
	90	1	56.6	23.2	0	0	1	1.02869716	-17.4500571	225	1	1.08889	0.986667;
	91	1	12.5	6.1	0	0	1	1.06110535	-10.011071	225	1	1.08444	1.00889;
	92	1	0	0	0	0	1	1.09628154	-10.2752951	380	1	1.10526	1.04211;
	93	1	0	0	0	0	1	1.09626652	-10.3408643	380	1	1.10526	1.04211;
	96	1	12.7	0.6	0	0	1	1.03899906	-21.249333	225	1	1.08889	1;
	97	1	18.3	11.1	0	0	1	1.05967534	-26.3404543	225	1	1.08889	1.00444;
	98	1	90.8	9.6	0	0	1	1.08980899	-20.3391476	150	1	1.1	0.9;
	99	1	82.1	-2.6	0	0	1	1.06178937	-19.5760273	225	1	1.08889	1;
	100	2	1.3	0	0	0	1	1.047	-26.5626067	225	1	1.08294	0.95;
	101	1	0	0	0	0	1	1.06996351	-11.6033765	225	1	1.08889	0.933333;
	102	1	0	0	0	0	1	1.08055246	-11.9300442	380	1	1.10526	1.03947;
	103	1	0	0	0	0	1	1.08508578	-10.5926216	380	1	1.10526	1.03947;
	104	1	0	0	0	0	1	1.06318926	-29.5087452	225	1	1.08889	1.00444;
	1828	1	86.9	24.6	0	0	1	1.02240079	-27.6979431	225	1	1.08889	1.00444;
	105	1	0	0	0	0	1	1.01450076	-8.32170765	225	1	1.08889	0.986667;
	106	1	12.8	7.6	0	0	1	1.0630316	-29.5180245	225	1	1.08889	1.00444;
	107	1	150.1	27.1	0	0	1	1.05758647	-16.7313551	225	1	1.08889	0.933333;
	108	1	0	0	0	0	1	1.08771263	-13.0937516	380	1	1.10526	1.03947;
	109	1	32.1	-1.6	0	0	1	1.05221496	-19.42176	225	1	1.08889	1;
	110	1	29.4	1.2	0	0	1	1.06427041	-27.6469852	225	1	1.08986	1.00444;
	111	1	131.9	2.8	0	0	1	1.04763532	-21.4392097	225	1	1.09612	1;
	112	1	174.9	55.6	0	0	1	1.04821999	-6.09890022	225	1	1.08889	0.986667;
	113	1	129.6	33.2	0	0	1	1.07717994	-28.5335757	225	1	1.09036	1.00444;
	114	1	245.6	120.6	0	0	1	1.03178823	-16.9927144	225	1	1.08889	0.924444;
	115	1	82.1	14.7	0	0	1	1.09231277	-2.05616931	225	1	1.09614	0.986667;
	117	1	0	0	0	0	1	1.09389537	-0.736213886	380	1	1.10526	1.03947;
	119	1	192	-29.8	0	0	1	1.06047317	-44.120148	225	1	1.08444	1.00444;
	120	1	21.6	-16.9	0	0	1	1.06060073	-27.8034912	225	1	1.08444	1.00889;
	121	1	0	0	0	0	1	1.05482056	-24.8317512	380	1	1.10263	1.02895;
	122	1	-0.1	-4.2	0	0	1	1.05814282	-16.7377691	225	1	1.08889	0.933333;
	123	1	172.6	37.2	0	0	1	1.05310157	-14.5175853	225	1	1.08889	0.933333;
	124	1	31.9	29.8	0	0	1	0.985502684	-27.6805996	63	1	1.07937	0.920635;
	125	2	0	0	0	0	1	1.075	-11.1822761	225	1	1.07476	0.95;
	126	1	4.4	5.3	0	0	1	1.06254415	-12.6191947	225	1	1.09768	1;
	127	1	0	0	0	0	1	1.06165332	-12.4481071	380	1	1.10526	1.05263;
	128	1	0	0	0	0	1	1.06171209	-12.4449698	380	1	1.10526	1.05263;
	129	1	0	0	0	0	1	1.06171169	-12.4414328	380	1	1.10526	1.05263;
	130	1	0	0	0	0	1	1.06171591	-12.4569393	380	1	1.10526	1.05263;
	131	1	0	0	0	0	1	1.09281722	-1.93828971	225	1	1.09645	0.986667;
	132	1	0	0	0	0	1	1.09321091	-1.89406638	225	1	1.09645	0.986667;
	133	1	0	0	0	0	1	1.09428806	-0.660023831	380	1	1.10526	1.03947;
	134	1	123.5	26.5	0	0	1	1.04658623	-17.4078076	225	1	1.08889	0.968889;
	135	1	39.1	10.1	0	0	1	1.05841531	-29.1726347	225	1	1.08444	1.00889;
	136	1	4.4	-3.3	0	0	1	1.0929023	-14.4428362	380	1	1.10526	1.03947;
	137	1	166.9	46.7	0	0	1	1.06624388	-13.5936863	225	1	1.08889	0.933333;
	138	1	0	0	0	0	1	1.08828937	-8.66211144	380	1	1.10526	1.03947;
	140	1	202	20.2	0	0	1	1.06351924	-7.79388057	225	1	1.08444	1.00889;
	142	1	231.3	-18.3	0	0	1	1.06383645	-21.4009315	225	1	1.08444	1.00444;
	143	1	49.3	7.8	0	0	1	1.06497019	-14.3219736	225	1	1.08889	0.933333;
	144	1	40.6	10.3	0	0	1	1.06495666	-14.3218472	225	1	1.08889	0.933333;
	145	1	49.8	-6.2	0	0	1	1.0643289	-27.6335652	225	1	1.08952	1.00444;
	146	1	0	0	0	0	1	1.08425216	-15.6314382	225	1	1.09478	1;
	147	1	0	0	0	0	1	1.08425017	-15.6314163	225	1	1.09478	1;
	148	1	68.7	4.5	0	0	1	1.03703861	-21.6794579	225	1	1.08889	1;
	149	1	30	-1.5	0	0	1	1.07013482	-22.6530231	225	1	1.08889	1.00444;
	150	1	52.2	3.9	0	0	1	1.05711849	-10.5337087	225	1	1.08444	1.00889;
	151	1	40.2	6.8	0	0	1	1.03024139	-22.9196139	225	1	1.08889	1;
	152	1	0	0	0	0	1	1.06766178	-18.9938039	225	1	1.08444	1.00889;
	153	1	0	0	0	0	1	1.06754722	-19.0038009	225	1	1.08444	1.00889;
	154	1	0	0	0	0	1	1.06827365	-13.7799336	225	1	1.08444	1.00889;
	155	1	0	0	0	0	1	1.0673204	-10.8896153	380	1	1.10263	1.02895;
	156	1	165.9	38.2	0	0	1	1.07127045	-6.97276103	225	1	1.08889	0.888889;
	157	1	0	0	0	0	1	1.06255578	-12.6189557	225	1	1.09766	1;
	158	1	0	0	0	0	1	1.0616181	-12.5220424	380	1	1.10526	1.05263;
	159	1	37.1	-0.1	0	0	1	1.06931636	-20.6089905	225	1	1.08889	0.986667;
	160	1	17.9	14.6	0	0	1	1.05141863	-20.1476178	225	1	1.08889	1;
	161	1	0	0	0	0	1	1.06392624	-47.4453704	225	1	1.08444	1.00444;
	162	1	0	0	0	0	1	1.06392624	-47.4453704	225	1	1.08444	1.00444;
	163	1	0	0	0	0	1	1.0639337	-47.4455673	225	1	1.08444	1.00444;
	164	1	96.9	-7.4	0	0	1	1.06392519	-47.4453427	225	1	1.08444	1.00444;
	165	1	0	0	0	0	1	1.04929635	-14.6824758	225	1	1.08889	0.933333;
	166	1	8.5	-5.2	0	0	1	1.05576074	-18.0294475	225	1	1.08889	0.986667;
	167	1	0	0	0	0	1	1.08003155	-15.5273422	225	1	1.08941	1;
	168	1	0	0	0	0	1	1.10275103	-13.6224102	380	1	1.10526	1.05263;
	169	2	0	0	0	0	1	1.065	-10.5301711	225	1	1.1	0.9;
	170	1	13	4	0	0	1	1.06378698	-14.2934111	150	1	1.08	0.966667;
	171	1	50.4	4.5	0	0	1	1.04775939	-26.33461	225	1	1.08889	1.00444;
	172	1	0.4	0.6	0	0	1	1.04808518	-26.2519316	225	1	1.08889	1.00444;
	173	1	29.1	-7.9	0	0	1	1.07510823	-7.61404816	225	1	1.08889	0.888889;
	175	1	0	0	0	0	1	1.09067669	-15.1361301	225	1	1.09176	1;
	176	1	0	0	0	0	1	1.09066171	-15.1401826	225	1	1.09176	1;
	177	1	0	0	0	0	1	1.09066018	-15.1414014	225	1	1.09176	1;
	178	1	0	0	0	0	1	1.09066031	-15.1416365	225	1	1.09176	1;
	179	1	0	0	0	0	1	1.09067577	-15.1363968	225	1	1.09176	1;
	180	2	0	0	0	0	1	1.106	-12.5833301	380	1	1.10676	0.9;
	181	1	181.5	39.9	0	0	1	1.03045303	-22.8863824	225	1	1.08889	1;
	182	1	32	21.4	0	0	1	1.0335418	-7.53929064	225	1	1.08889	0.986667;
	183	1	0	0	0	0	1	1.10474299	-6.96501596	380	1	1.10526	1.03947;
	184	1	0	0	0	0	1	1.10478796	-6.86773226	380	1	1.10526	1.03947;
	185	1	0	0	0	0	1	1.10478098	-6.87116136	380	1	1.10526	1.03947;
	186	1	0	0	0	0	1	1.10468548	-6.97480557	380	1	1.10526	1.03947;
	187	1	65.9	23.3	0	0	1	1.04725791	-14.2700868	225	1	1.08889	0.924444;
	188	1	5.4	1.4	0	0	1	1.01804862	-15.7308568	225	1	1.08889	0.986667;
	189	1	101.7	-4.3	0	0	1	1.06134926	-37.4718079	225	1	1.08444	1.00444;
	190	1	-6.8	-0.2	0	0	1	1.1018436	-9.27082575	380	1	1.10263	1.04211;
	191	1	-5.3	-0	0	0	1	1.10183713	-9.287798	380	1	1.10263	1.04211;
	192	1	0	0	0	0	1	1.04457932	-26.990897	225	1	1.08889	1.00444;
	193	1	0	0	0	0	1	1.05681418	-11.7044868	225	1	1.08889	0.977778;
	194	1	0	0	0	0	1	1.05681418	-11.7044868	225	1	1.08889	0.977778;
	195	1	135.5	19.2	0	0	1	1.04445588	-18.3455233	225	1	1.08889	0.968889;
	196	1	0	0	0	0	1	1.04945382	-8.4785075	225	1	1.08889	0.933333;
	197	1	0	0	0	0	1	1.04837841	-8.84197075	225	1	1.08889	0.933333;
	198	1	98.9	26.5	0	0	1	1.05655618	-34.7827565	225	1	1.08444	1.00444;
	199	1	299.2	-25.2	0	0	1	1.06314451	-31.7654169	225	1	1.08444	1.00444;
	200	1	0	0	0	0	1	1.06563029	-14.4050722	225	1	1.08889	0.977778;
	201	1	0	0	0	0	1	1.0828913	-20.9372094	225	1	1.08444	1.00444;
	202	1	211.2	31	0	0	1	1.0412184	-18.9969233	225	1	1.08889	0.951111;
	203	1	89.7	19.5	0	0	1	1.06684056	-25.4578479	225	1	1.08889	1.00444;
	204	1	92.2	26	0	0	1	1.01851424	-15.8861463	225	1	1.08889	0.986667;
	205	1	29.6	2.7	0	0	1	1.05412091	-28.4877736	225	1	1.08444	1.00889;
	206	1	0	0	0	0	1	1.05395541	-25.941997	380	1	1.10263	1.02895;
...
];

%% generator data
%	bus	Pg	Qg	Qmax	Qmin	Vg	mBase	status	Pmax	Pmin	Pc1	Pc2	Qc1min	Qc1max	Qc2min	Qc2max	ramp_agc	ramp_10	ramp_30	ramp_q	apf
mpc.gen = [
	1268	44.5	4.4274805	27	-9	1.029	100	1	45	44	0	0	0	0	0	0	0	0	0	0	0;
	1268	44.5	4.4274805	27	-9	1.029	100	1	45	44	0	0	0	0	0	0	0	0	0	0	0;
	1356	21	-12.389121	7	-12	1.057	100	1	22	4.4	0	0	0	0	0	0	0	0	0	0	0;
	89	24	4.26826592	13	-9	1.042	100	1	25	5	0	0	0	0	0	0	0	0	0	0	0;
	1837	5.24	1.2286528	16	-17	1.041	100	1	26	5.2	0	0	0	0	0	0	0	0	0	0	0;
	1837	22.86	1.2286528	16	-17	1.041	100	1	26	5.2	0	0	0	0	0	0	0	0	0	0	0;
	125	21.99	-0.421228188	8	-17	1.075	100	1	23.4	4.68	0	0	0	0	0	0	0	0	0	0	0;
	908	19	3.65249544	2	1.9	1.106	100	1	20	4	0	0	0	0	0	0	0	0	0	0	0;
	817	2.41	-0.759944705	1	0.9	1.108	100	1	12	2.4	0	0	0	0	0	0	0	0	0	0	0;
	817	2.81	-0.759944705	1	0.9	1.108	100	1	14	2.8	0	0	0	0	0	0	0	0	0	0	0;
	817	2.41	-0.759944705	1	0.9	1.108	100	1	12	2.4	0	0	0	0	0	0	0	0	0	0	0;
	1335	29	-0.834967559	10	-10	1.044	100	1	30	6	0	0	0	0	0	0	0	0	0	0	0;
	396	0	0	5	1	1.031	100	0	11	2.2	0	0	0	0	0	0	0	0	0	0	0;
	396	0	0	5	1	1.031	100	0	11	2.2	0	0	0	0	0	0	0	0	0	0	0;
	975	11.46	-1.33562282	15	-15	1.048	100	1	35	7	0	0	0	0	0	0	0	0	0	0	0;
	858	4.35	0	0	0	1.054	100	1	55.4	11.08	0	0	0	0	0	0	0	0	0	0	0;
	921	18.67	13.3672286	25	-20	1.085	100	1	42	8.4	0	0	0	0	0	0	0	0	0	0	0;
	921	39.85	13.3672286	25	-20	1.085	100	1	42	8.4	0	0	0	0	0	0	0	0	0	0	0;
	1255	43.51	-10.8616753	26.1	-24.36	1.067	100	1	87	17.4	0	0	0	0	0	0	0	0	0	0	0;
	169	3.38	0.340223168	8.3	-8.3	1.065	100	1	8.3	1.66	0	0	0	0	0	0	0	0	0	0	0;
	448	1.91	0	0	0	1.068	100	1	4	0	0	0	0	0	0	0	0	0	0	0	0;
	241	0	0	5	-5	1.027	100	0	13	2.6	0	0	0	0	0	0	0	0	0	0	0;
	241	0	0	5	-5	1.027	100	0	13	2.6	0	0	0	0	0	0	0	0	0	0	0;
	241	0	0	5	-5	1.027	100	0	13	2.6	0	0	0	0	0	0	0	0	0	0	0;
	241	0	0	5	-5	1.027	100	0	13	2.6	0	0	0	0	0	0	0	0	0	0	0;
	270	47.99	15.4280555	27	-9	1.022	100	1	50	10	0	0	0	0	0	0	0	0	0	0	0;
	885	-0.5	0	0	0	1.079	100	1	8	1.6	0	0	0	0	0	0	0	0	0	0	0;
	885	-0.5	0	0	0	1.079	100	1	8	1.6	0	0	0	0	0	0	0	0	0	0	0;
	876	-0.45	0	0	0	1.046	100	1	54	10.8	0	0	0	0	0	0	0	0	0	0	0;
	180	231.98	119.662643	80	-75	1.106	100	1	239	47.8	0	0	0	0	0	0	0	0	0	0	0;
	46	20.4138276	-17.7434922	10	-4	1.107	100	1	30	6	0	0	0	0	0	0	0	0	0	0	0;
	803	2.8	-16.9283824	4.63	-5.56	1.067	100	1	13.8	2.76	0	0	0	0	0	0	0	0	0	0	0;
	356	28.81	2.25067553	12.42	-11.59	1.06	100	1	41.4	8.28	0	0	0	0	0	0	0	0	0	0	0;
	100	126	24.1118983	59	-26	1.047	100	1	130	26	0	0	0	0	0	0	0	0	0	0	0;
	707	0	0	8	-8	1.092	100	0	21	4.2	0	0	0	0	0	0	0	0	0	0	0;
	973	-7.47	0	0	0	1.121	100	1	0	-8	0	0	0	0	0	0	0	0	0	0	0;
	973	50.65	-0.457761425	17	-10	1.121	100	1	53	10.6	0	0	0	0	0	0	0	0	0	0	0;
	1118	-5.1	0	0	0	1.041	100	1	55	11	0	0	0	0	0	0	0	0	0	0	0;
	897	5.41	0.123629511	10	-3	1.069	100	1	27	5.4	0	0	0	0	0	0	0	0	0	0	0;
	897	5.41	0.123629511	10	-3	1.069	100	1	27	5.4	0	0	0	0	0	0	0	0	0	0	0;
	58	1.21	11.0590838	2	1.9	1.107	100	1	6	1.2	0	0	0	0	0	0	0	0	0	0	0;
	82	6.51	0	0	0	1.051	100	1	25.3	5.06	0	0	0	0	0	0	0	0	0	0	0;
	474	7.68	3.27668012	10	-13	1.076	100	1	52	10.4	0	0	0	0	0	0	0	0	0	0	0;
	1221	11.61	2.75047126	35	-35	1.083	100	1	58	11.6	0	0	0	0	0	0	0	0	0	0	0;
	355	0	0	40	-40	1.092	100	0	62	12.4	0	0	0	0	0	0	0	0	0	0	0;
	471	4.25	2.42061159	1	0	1.039	100	1	78	15.6	0	0	0	0	0	0	0	0	0	0	0;
	1321	2.21	9.84886122	1	0.9	1.108	100	1	11	2.2	0	0	0	0	0	0	0	0	0	0	0;
	1321	0	0	0.1	-0.1	1.108	100	0	2.5	0	0	0	0	0	0	0	0	0	0	0	0;
	1829	1.59	6.35981815	8	-8	1.054	100	1	23.5	4.7	0	0	0	0	0	0	0	0	0	0	0;
	1005	26.26	-1.56	19	-19	1.11	100	1	39	7.8	0	0	0	0	0	0	0	0	0	0	0;
	14	2.24	0	0	0	1.059	100	1	27.6	5.52	0	0	0	0	0	0	0	0	0	0	0;
	14	0.83	0	0	0	1.059	100	1	24	4.8	0	0	0	0	0	0	0	0	0	0	0;
	1628	200	40.3526511	155.3	-217.55	0.997	100	1	670	200	0	0	0	0	0	0	0	0	0	0	0;
	1629	140	83.1569871	231.39	-190.58	1.006	100	1	700	140	0	0	0	0	0	0	0	0	0	0	0;
	1842	18.78	-1.17283872	15.23	-10.77	1.001	100	1	23	4.6	0	0	0	0	0	0	0	0	0	0	0;
	1843	11.18	-1.23506379	15.06	-10.94	1.004	100	1	23	4.6	0	0	0	0	0	0	0	0	0	0	0;
	1844	26	-1.02233427	24.62	-15.38	0.997	100	1	27	5.4	0	0	0	0	0	0	0	0	0	0	0;
	1630	83	4.41109375	43.86	-8.5	0.966	100	1	86	17.2	0	0	0	0	0	0	0	0	0	0	0;
	1631	9.81	1.30921906	22.19	-9.73	0.97	100	1	49	9.8	0	0	0	0	0	0	0	0	0	0	0;
	1845	25	21.9053803	71.8	-30.08	1.03	100	1	124	24.8	0	0	0	0	0	0	0	0	0	0	0;
	1846	30.99	0.119523029	8.36	-8.36	1.05	100	1	32	6.4	0	0	0	0	0	0	0	0	0	0	0;
	1632	30.99	0.119523029	8.36	-8.36	1.05	100	1	32	6.4	0	0	0	0	0	0	0	0	0	0	0;
	1847	30.99	0.116646159	8.15	-8.57	1.05	100	1	32	6.4	0	0	0	0	0	0	0	0	0	0	0;
	1848	30.99	0.116646159	8.15	-8.57	1.05	100	1	32	6.4	0	0	0	0	0	0	0	0	0	0	0;
	1849	88.99	14.4141775	55.77	-34.23	1.032	100	1	92	18.4	0	0	0	0	0	0	0	0	0	0	0;
	1850	88.99	11.9965275	50.5	-39.5	1.029	100	1	92	18.4	0	0	0	0	0	0	0	0	0	0	0;
	1851	87.24	11.5100612	56.32	-33.68	1.032	100	1	92	18.4	0	0	0	0	0	0	0	0	0	0	0;
	1852	88.98	10.3555107	54.57	-35.43	1.03	100	1	92	18.4	0	0	0	0	0	0	0	0	0	0	0;
	1853	88.99	14.6956644	55.26	-34.74	1.032	100	1	92	18.4	0	0	0	0	0	0	0	0	0	0	0;
	1854	88.99	15.3875404	56.48	-33.52	1.033	100	1	92	18.4	0	0	0	0	0	0	0	0	0	0	0;
	1633	919	99.25636	421.39	-376.62	1.013	100	1	945.08	255.07	0	0	0	0	0	0	0	0	0	0	0;
	1634	951	103.305884	428.83	-369.21	1.013	100	1	978.04	288.05	0	0	0	0	0	0	0	0	0	0	0;
	1635	949	102.627668	428.07	-369.92	1.013	100	1	976.08	256.08	0	0	0	0	0	0	0	0	0	0	0;
	1636	917	99.0700079	420.86	-377.13	1.013	100	1	943.08	253.07	0	0	0	0	0	0	0	0	0	0	0;
	1637	244.97	63.7026543	153.03	-90.23	1.033	100	1	252	156	0	0	0	0	0	0	0	0	0	0	0;
	1638	242.98	61.7066508	152.44	-90.81	1.029	100	1	250	154	0	0	0	0	0	0	0	0	0	0	0;
	1639	242.98	32.0388499	105.68	-58.28	1.033	100	1	250	154	0	0	0	0	0	0	0	0	0	0	0;
	1640	122.01	67.7663427	228.81	-159.91	1.05	100	1	305	122	0	0	0	0	0	0	0	0	0	0	0;
	1641	89.01	23.5373518	94.32	-74.64	1.045	100	1	155	89	0	0	0	0	0	0	0	0	0	0	0;
	1642	55.99	1.00771714	21.65	-18.77	1.006	100	1	58	11.6	0	0	0	0	0	0	0	0	0	0	0;
	1643	55.99	0.878215167	16.01	-10.66	1.005	100	1	58	11.6	0	0	0	0	0	0	0	0	0	0	0;
	1855	55.99	1.00771714	21.47	-18.95	1.006	100	1	58	11.6	0	0	0	0	0	0	0	0	0	0	0;
	1644	55.99	0.878215167	16.05	-10.62	1.005	100	1	58	11.6	0	0	0	0	0	0	0	0	0	0	0;
	1645	55.99	0.878215167	15.81	-10.86	1.005	100	1	58	11.6	0	0	0	0	0	0	0	0	0	0	0;
	1646	254.99	71.5970457	146.45	-90.18	1.007	100	1	263	133	0	0	0	0	0	0	0	0	0	0	0;
	1647	43	7.07034039	50.67	-38.09	1.061	100	1	44.96	8.99	0	0	0	0	0	0	0	0	0	0	0;
	1856	134.98	-1.96367742	108.44	-71.56	1.023	100	1	139	27.8	0	0	0	0	0	0	0	0	0	0	0;
	1857	29.44	-0.168947935	34.32	-25.68	0.986	100	1	49	9.8	0	0	0	0	0	0	0	0	0	0	0;
	1858	24.2	-0.459904719	55.44	-44.56	0.99	100	1	49	9.8	0	0	0	0	0	0	0	0	0	0	0;
	1859	46.98	-0.0132054952	34.29	-25.71	0.988	100	1	49	9.8	0	0	0	0	0	0	0	0	0	0	0;
	2070	9.82	0.162569842	31.96	-28.04	0.992	100	1	49	9.8	0	0	0	0	0	0	0	0	0	0	0;
	1860	30.99	1.9129547	18.84	-17.16	1.039	100	1	32	6.4	0	0	0	0	0	0	0	0	0	0	0;
	1861	30.99	2.01236451	19.75	-16.25	1.046	100	1	32	6.4	0	0	0	0	0	0	0	0	0	0	0;
	1648	909.99	377.788695	530.99	-158.23	1.05	100	1	936.29	266.29	0	0	0	0	0	0	0	0	0	0	0;
	1649	915.99	335.218325	533.69	-156.07	1.045	100	1	942.82	272.82	0	0	0	0	0	0	0	0	0	0	0;
	1650	897.99	378.366723	537.68	-152.82	1.05	100	1	924.28	274.28	0	0	0	0	0	0	0	0	0	0	0;
	1651	896.99	326.979271	529.89	-160.89	1.044	100	1	922.8	272.8	0	0	0	0	0	0	0	0	0	0	0;
	1652	1272	172.910722	681.04	-153	1.018	100	1	1308	318	0	0	0	0	0	0	0	0	0	0	0;
	1862	1272	172.97602	681.03	-153	1.018	100	1	1308	318	0	0	0	0	0	0	0	0	0	0	0;
	1653	33.99	0.0721659226	6.08	-1.92	1.041	100	1	35	7	0	0	0	0	0	0	0	0	0	0	0;
	1654	33.99	0.0721659226	6.21	-1.79	1.041	100	1	35	7	0	0	0	0	0	0	0	0	0	0	0;
	1655	33.99	0.0721659226	6.21	-1.79	1.041	100	1	35	7	0	0	0	0	0	0	0	0	0	0	0;
	1656	33.99	0.0721659226	6.11	-1.89	1.041	100	1	35	7	0	0	0	0	0	0	0	0	0	0	0;
	1657	33.99	0.0721659226	6.11	-1.89	1.041	100	1	35	7	0	0	0	0	0	0	0	0	0	0	0;
	1658	33.99	0.0721659226	6.11	-1.89	1.041	100	1	35	7	0	0	0	0	0	0	0	0	0	0	0;
	1863	29.13	1.33429126	18.45	-13.16	0.996	100	1	36.97	7.39	0	0	0	0	0	0	0	0	0	0	0;
	1659	30.6	1.48255395	18.45	-13.16	0.996	100	1	36.97	7.39	0	0	0	0	0	0	0	0	0	0	0;
	1660	30.59	1.48152045	18.45	-11.35	0.996	100	1	36.97	7.39	0	0	0	0	0	0	0	0	0	0	0;
	1661	30.59	1.48152045	18.11	-11.7	0.996	100	1	36.97	7.39	0	0	0	0	0	0	0	0	0	0	0;
	1662	30.64	1.49626955	18.21	-13.41	0.995	100	1	36.97	7.39	0	0	0	0	0	0	0	0	0	0	0;
	1663	30.59	1.49108802	18.55	-13.05	0.995	100	1	36.97	7.39	0	0	0	0	0	0	0	0	0	0	0;
	1864	18.35	0.0180291493	10.54	-9.46	0.975	100	1	20	4	0	0	0	0	0	0	0	0	0	0	0;
	1865	18.99	0.0750041094	12.32	-7.68	0.975	100	1	20	4	0	0	0	0	0	0	0	0	0	0	0;
	1866	27.1	1.4244521	17.85	-13.79	0.994	100	1	30.98	6.2	0	0	0	0	0	0	0	0	0	0	0;
	1664	27.56	1.17096885	17.85	-13.79	0.993	100	1	30.98	6.2	0	0	0	0	0	0	0	0	0	0	0;
	1665	27.57	1.46809477	18.01	-13.62	0.994	100	1	30.98	6.2	0	0	0	0	0	0	0	0	0	0	0;
	1867	27.03	1.41801688	18.01	-13.62	0.994	100	1	30.98	6.2	0	0	0	0	0	0	0	0	0	0	0;
	1666	26.84	1.41084544	17.89	-13.75	0.995	100	1	30.98	6.2	0	0	0	0	0	0	0	0	0	0	0;
	1868	26.48	1.378314	17.74	-13.91	0.995	100	1	30.98	6.2	0	0	0	0	0	0	0	0	0	0	0;
	1667	1292.99	302.805059	656.06	-184.89	1.04	100	1	1330	337	0	0	0	0	0	0	0	0	0	0	0;
	1869	467	236.022765	515.51	-327.72	1.04	100	1	1360	467	0	0	0	0	0	0	0	0	0	0	0;
	1668	1321.99	344.188212	656.92	-183.9	1.042	100	1	1360	367	0	0	0	0	0	0	0	0	0	0	0;
	1669	1321.99	392.278071	648.03	-192.8	1.048	100	1	1360	367	0	0	0	0	0	0	0	0	0	0	0;
	1870	73.37	0.248826184	60.11	-39.89	0.977	100	1	90	18	0	0	0	0	0	0	0	0	0	0	0;
	1871	0	0	59.33	-40.67	1.036	100	0	95	19	0	0	0	0	0	0	0	0	0	0	0;
	1872	0	0	59.61	-40.39	0.993	100	0	102	20.4	0	0	0	0	0	0	0	0	0	0	0;
	1670	1.45	35.9057682	281.46	-103.91	1.018	100	1	1.5	1.4	0	0	0	0	0	0	0	0	0	0	0;
	1873	48.01	27.736571	94.03	-45.97	1.027	100	1	240	48	0	0	0	0	0	0	0	0	0	0	0;
	1874	48.01	29.6635102	95.11	-44.89	1.028	100	1	240	48	0	0	0	0	0	0	0	0	0	0	0;
	1671	916	264.372682	524.6	-107.2	1.029	100	1	942.72	232.72	0	0	0	0	0	0	0	0	0	0	0;
	1673	927	249.050372	511.64	-99.08	1.027	100	1	953.74	243.74	0	0	0	0	0	0	0	0	0	0	0;
	1674	926	290.232552	555.41	-99.32	1.032	100	1	952.74	242.74	0	0	0	0	0	0	0	0	0	0	0;
	1675	1461	444.714323	682.28	-126.36	1.053	100	1	1503	403	0	0	0	0	0	0	0	0	0	0	0;
	1676	1461	485.358516	687.17	-121.66	1.057	100	1	1503	403	0	0	0	0	0	0	0	0	0	0	0;
	1875	1456	63.7996283	409.45	-352.29	1.002	100	1	1498	398	0	0	0	0	0	0	0	0	0	0	0;
	1677	1456	63.4083981	409.42	-352.33	1.002	100	1	1498	398	0	0	0	0	0	0	0	0	0	0	0;
	1877	15.01	12.1393847	51.88	-38.44	1.077	100	1	75	15	0	0	0	0	0	0	0	0	0	0	0;
	1878	15.01	12.1393847	51.88	-38.44	1.077	100	1	75	15	0	0	0	0	0	0	0	0	0	0	0;
	1678	92	18.4677982	104.12	-61.4	1.001	100	1	95	8.5	0	0	0	0	0	0	0	0	0	0	0;
	1679	92	18.4672217	103.94	-61.58	1.001	100	1	95	8.5	0	0	0	0	0	0	0	0	0	0	0;
	1680	144	23.4744946	86.67	-10.65	1.007	100	1	148.2	4.2	0	0	0	0	0	0	0	0	0	0	0;
	1681	602.4	48.8230266	220.22	-59.17	0.997	100	1	685	180	0	0	0	0	0	0	0	0	0	0	0;
	1682	593	105.178703	330.28	-165.24	1.007	100	1	610	310	0	0	0	0	0	0	0	0	0	0	0;
	1683	593	86.6566022	297.67	-191.83	1.003	100	1	610	310	0	0	0	0	0	0	0	0	0	0	0;
	1684	585.86	86.2792907	254.82	-293.65	1.004	100	1	700	205	0	0	0	0	0	0	0	0	0	0	0;
	1880	14.03	0.397427179	16.85	-27.03	1.056	100	1	38	7.6	0	0	0	0	0	0	0	0	0	0	0;
	2045	0	0	15.82	-14.18	1.045	100	0	31	6.2	0	0	0	0	0	0	0	0	0	0	0;
	2081	0	0	15.82	-14.18	1.045	100	0	31	6.2	0	0	0	0	0	0	0	0	0	0	0;
	1881	45.83	0.873890733	15.6	-13.8	0.976	100	1	50	10	0	0	0	0	0	0	0	0	0	0	0;
	1882	46.4	0.940933823	15.2	-14.2	0.976	100	1	50	10	0	0	0	0	0	0	0	0	0	0	0;
	1685	46.83	0.992066268	15.81	-13.6	0.976	100	1	50	10	0	0	0	0	0	0	0	0	0	0	0;
	1883	45.13	0.792706187	15.81	-13.6	0.976	100	1	50	10	0	0	0	0	0	0	0	0	0	0	0;
	1884	43.76	1.03618683	15.81	-13.6	0.977	100	1	50	10	0	0	0	0	0	0	0	0	0	0	0;
	1885	46.25	0.923209447	15.6	-13.8	0.976	100	1	50	10	0	0	0	0	0	0	0	0	0	0	0;
	1686	971.99	153.894048	532.91	-90.14	1.02	100	1	1000	280	0	0	0	0	0	0	0	0	0	0	0;
	1687	971.99	153.903799	535.45	-87.61	1.02	100	1	1000	280	0	0	0	0	0	0	0	0	0	0	0;
	1688	971.99	169.664887	567.71	-88.3	1.022	100	1	1000	280	0	0	0	0	0	0	0	0	0	0	0;
	1689	903.99	169.910745	559.16	-96.85	1.023	100	1	930	280	0	0	0	0	0	0	0	0	0	0	0;
	1886	35.58	-0.816221879	17.23	-17.46	1.026	100	1	57	11.4	0	0	0	0	0	0	0	0	0	0	0;
	1887	11.41	-0.667980463	15.45	-19.21	1.028	100	1	57	11.4	0	0	0	0	0	0	0	0	0	0	0;
	1888	54.99	-0.415761807	17.35	-17.35	1.024	100	1	57	11.4	0	0	0	0	0	0	0	0	0	0	0;
	1690	239.02	86.47329	219.77	-155.72	1.013	100	1	451	239	0	0	0	0	0	0	0	0	0	0	0;
	1691	21.01	4.82717052	51.25	-10.63	1.026	100	1	63	21	0	0	0	0	0	0	0	0	0	0	0;
	1692	248.81	110.248658	258.1	-182.18	1.073	100	1	433.8	248.8	0	0	0	0	0	0	0	0	0	0	0;
	1693	81.81	3.39078441	71.21	-44.25	0.99	100	1	168.17	81.81	0	0	0	0	0	0	0	0	0	0	0;
	1694	82.28	3.77032219	73.34	-37.69	0.99	100	1	168.6	82.28	0	0	0	0	0	0	0	0	0	0	0;
	1695	203.71	7.94373323	113.53	-43.7	0.984	100	1	248.21	53.91	0	0	0	0	0	0	0	0	0	0	0;
	1696	195.15	6.93121323	100.92	-59.36	0.988	100	1	238.09	43.97	0	0	0	0	0	0	0	0	0	0	0;
	1697	894	209.022069	525.14	-88.61	1.027	100	1	919.69	229.69	0	0	0	0	0	0	0	0	0	0	0;
	1698	894	209.022069	525.14	-88.61	1.027	100	1	919.69	229.69	0	0	0	0	0	0	0	0	0	0	0;
	1699	901	209.767554	526.77	-86.99	1.027	100	1	926.69	236.69	0	0	0	0	0	0	0	0	0	0	0;
	1700	915	211.277313	530.29	-83.48	1.027	100	1	941.69	251.69	0	0	0	0	0	0	0	0	0	0	0;
	1701	30.99	0.104942528	10.32	-9.68	1.028	100	1	32	6.4	0	0	0	0	0	0	0	0	0	0	0;
	1702	35.39	7.53190218	19.22	-17.67	0.97	100	1	39.88	7.98	0	0	0	0	0	0	0	0	0	0	0;
	1703	35.4	7.53293157	19.34	-17.74	0.97	100	1	39.88	7.98	0	0	0	0	0	0	0	0	0	0	0;
	1889	34.21	7.4124961	19.24	-17.66	0.97	100	1	39.88	7.98	0	0	0	0	0	0	0	0	0	0	0;
	1704	1342	248.497207	398.39	-396.86	1.05	100	1	1380	340	0	0	0	0	0	0	0	0	0	0	0;
	1705	1342	252.742975	371.08	-424.16	1.05	100	1	1380	340	0	0	0	0	0	0	0	0	0	0	0;
	1890	16.69	0.154682896	5.35	-2.57	0.955	100	1	24	4.8	0	0	0	0	0	0	0	0	0	0	0;
	1891	18.06	0.288273598	5.48	-2.43	0.955	100	1	24	4.8	0	0	0	0	0	0	0	0	0	0	0;
	1892	18.82	0.182062068	5	-2.93	0.954	100	1	24	4.8	0	0	0	0	0	0	0	0	0	0	0;
	1706	19.25	0.228090339	5.29	-2.63	0.954	100	1	24	4.8	0	0	0	0	0	0	0	0	0	0	0;
	1893	62.98	8.31170155	35.48	-24.52	0.998	100	1	65	13	0	0	0	0	0	0	0	0	0	0	0;
	1894	67.98	1.42517131	19	-25.15	0.994	100	1	70	14	0	0	0	0	0	0	0	0	0	0	0;
	1895	43.62	10.6273194	51.66	-38.34	1.008	100	1	67	13.4	0	0	0	0	0	0	0	0	0	0	0;
	1896	64.98	11.2407763	53.39	-36.61	1.007	100	1	67	13.4	0	0	0	0	0	0	0	0	0	0	0;
	1897	67.99	8.41530074	36.87	-23.13	0.997	100	1	70	14	0	0	0	0	0	0	0	0	0	0	0;
	1707	17.66	0.80284896	10	-4.98	0.976	100	1	23.99	4.8	0	0	0	0	0	0	0	0	0	0	0;
	1898	17.31	0.771854732	10.17	-4.8	0.976	100	1	23.99	4.8	0	0	0	0	0	0	0	0	0	0	0;
	1899	14.84	0.773634871	10.25	-4.72	0.977	100	1	23.99	4.8	0	0	0	0	0	0	0	0	0	0	0;
	1708	17.79	1.83121092	1.81	1.8	0.981	100	1	23.99	4.8	0	0	0	0	0	0	0	0	0	0	0;
	1709	17.66	0.80284896	10.16	-4.81	0.976	100	1	23.99	4.8	0	0	0	0	0	0	0	0	0	0	0;
	1710	24.74	0.624012562	12.23	-7.55	0.999	100	1	28.98	5.8	0	0	0	0	0	0	0	0	0	0	0;
	1711	24.74	0.624012562	12.31	-7.46	0.999	100	1	28.98	5.8	0	0	0	0	0	0	0	0	0	0	0;
	1712	1272	131.498164	615.09	-439.22	1.01	100	1	1308	288	0	0	0	0	0	0	0	0	0	0	0;
	1713	1272	132.552463	614.63	-439.67	1.01	100	1	1308	288	0	0	0	0	0	0	0	0	0	0	0;
	1900	0	0	10.45	-9.55	1.023	100	0	22	4.4	0	0	0	0	0	0	0	0	0	0	0;
	2017	0	0	10.45	-9.55	1.023	100	0	22	4.4	0	0	0	0	0	0	0	0	0	0	0;
	1714	109.01	109.638715	255.9	-84.1	1.058	100	1	458.26	89.26	0	0	0	0	0	0	0	0	0	0	0;
	1901	33.75	0.276048224	10.34	-16.91	1.02	100	1	36	7.2	0	0	0	0	0	0	0	0	0	0	0;
...
];

%% branch data
%	fbus	tbus	r	x	b	rateA	rateB	rateC	ratio	angle	status	angmin	angmax	Pf	Qf	Pt	Qt
mpc.branch = [
	1833	1	0.002607	0.017462	0.0324	540	540	540	1	0	1	0	0	36.4394	16.2358	-36.4000	-19.5000;
	29	2	2.1e-05	0.000125	0.1386	737	737	737	1	0	1	0	0	198.6000	31.3120	-198.5926	-47.4677;
	675	2	0.000145	0.001877	0.0635	2487	2487	2487	1	0	1	0	0	-366.5892	-117.7047	366.7729	112.6785;
	1271	2	0.000319	0.003234	0.0838	1841	1841	1841	1	0	1	0	0	27.6904	-38.9410	-27.6852	29.2091;
	30	2	2.1e-05	0.000125	0.1386	737	737	737	1	0	1	0	0	140.5000	78.2488	-140.4951	-94.4200;
	142	3	0.006163	0.041067	0.0759	446	446	446	1	0	1	0	0	104.3951	-22.5417	-103.7835	18.0126;
	677	3	0.000652	0.004369	0.0081	558	558	558	1	0	1	0	0	141.5380	34.3046	-141.4165	-34.4126;
	1048	4	0.009733	0.034089	0.0185	0	0	0	1	0	1	0	0	75.8300	28.8417	-75.2866	-29.1088;
	101	5	0.000277	0.002015	0.003	288	288	288	1	0	1	0	0	102.0837	-19.4996	-102.0575	19.3461;
	286	6	0.00881	0.033995	0.0607	289	289	289	1	0	1	0	0	-108.5332	-28.4783	109.5252	25.5018;
	329	6	0.004642	0.019832	0.0354	255	255	255	1	0	1	0	0	48.9852	-33.1326	-48.8471	29.7020;
	737	5	0.008861	0.03506	0.0623	288	288	288	1	0	1	0	0	-74.9736	7.6449	75.4206	-12.9906;
	760	5	0.006993	0.032869	0.0557	255	255	255	1	0	1	0	0	35.1008	-34.3260	-34.9643	28.6338;
	1330	6	0.002173	0.008731	0.0152	0	0	0	1	0	1	0	0	-29.3000	-19.2000	29.3229	17.5628;
	1350	5	0.00077	0.003121	0.0051	0	0	0	1	0	1	0	0	14.0000	7.5000	-13.9983	-8.0772;
	1523	6	0.004109	0.016138	0.0284	288	288	288	1	0	1	0	0	-10.4463	9.5708	10.4547	-12.7786;
	102	8	8.3e-05	0.000907	0.0202	1034	1034	1034	1	0	1	0	0	177.9800	7.1606	-177.9574	-9.2721;
	316	8	0.000552	0.006726	0.0939	1786	1786	1786	1	0	1	0	0	-162.7601	126.4580	162.9650	-134.9946;
	623	8	0.000512	0.008012	0.2455	2462	2462	2462	1	0	1	0	0	502.5036	88.7402	-501.3688	-99.8845;
	882	8	0.001107	0.00918	0.1906	1644	1644	1644	1	0	1	0	0	-156.3030	-41.9223	156.5457	21.7779;
	103	7	6.2e-05	0.000741	0.0173	1095	1095	1095	1	0	1	0	0	176.2200	-0.3863	-176.2036	-1.4550;
	623	8	0.000512	0.008019	0.2455	2462	2462	2462	1	0	1	0	0	502.0610	88.6783	-500.9282	-99.8379;
	623	7	0.001153	0.013123	0.1841	1433	1433	1433	1	0	1	0	0	94.1519	20.3488	-94.0563	-41.0272;
	113	9	0.000158	0.000672	0.0719	331	331	331	1	0	1	0	0	20.7008	-4.8717	-20.7002	-3.4683;
	1134	9	4.5e-05	8.9e-05	0.002	268	268	268	1	0	1	0	0	-20.7000	-3.7000	20.7002	3.4683;
	346	10	0.00478	0.028622	0.0547	455	455	455	1	0	1	0	0	70.6526	27.8443	-70.3936	-32.2272;
	345	10	0.00478	0.028583	0.0547	455	455	455	1	0	1	0	0	123.6889	14.8292	-123.0064	-16.6728;
	106	11	0.000257	0.000514	0.0294	0	0	0	1	0	1	0	0	57.7080	11.2942	-57.7000	-14.6000;
	758	12	0.000257	0.002153	0.2147	452	452	452	1	0	1	0	0	-220.6926	-34.7759	220.8020	10.8647;
	962	12	0.000277	0.000869	0.0931	481	481	481	1	0	1	0	0	248.7521	24.9504	-248.6020	-35.2647;
	955	13	0.000237	0.00083	0.1863	268	268	268	1	0	1	0	0	126.4020	42.4178	-126.3626	-63.3298;
	995	13	0.000178	0.000612	0.1377	268	268	268	1	0	1	0	0	51.1420	-26.3619	-51.1374	10.8298;
	39	14	0.002568	0.011753	0.0203	424	424	424	1	0	1	0	0	56.0048	2.5552	-55.9328	-4.5038;
	1428	14	0.002568	0.011615	0.0228	290	290	290	1	0	1	0	0	16.8037	0.2700	-16.7972	-2.7962;
	1054	16	9.9e-05	0.00077	0.078	379	379	379	1	0	1	0	0	-88.4932	-20.1285	88.5000	10.9509;
	1054	15	9.9e-05	0.00077	0.077	379	379	379	1	0	1	0	0	-88.4932	-20.0107	88.5000	10.9515;
	1428	17	0.000514	0.003437	0.0061	290	290	290	1	0	1	0	0	-16.8037	-0.2700	16.8050	-0.4055;
	1432	17	0.005476	0.036879	0.1255	522	522	522	1	0	1	0	0	-34.8884	-28.9796	34.9731	15.6005;
	39	17	0.000514	0.003457	0.0061	418	418	418	1	0	1	0	0	118.0430	15.8466	-117.9781	-16.0949;
	869	18	0.003477	0.01118	0.0187	304	304	304	1	0	1	0	0	-26.8333	10.6645	26.8592	-12.7337;
	1089	18	0.000612	0.003121	0.0152	270	270	270	1	0	1	0	0	39.1676	-7.3401	-39.1592	5.6337;
	1164	20	2.4e-05	0.000144	0.0213	701	701	701	1	0	1	0	0	29.2002	4.8655	-29.2000	-7.2000;
	1164	19	7.1e-05	0.000162	0.0162	251	251	251	1	0	1	0	0	67.9033	21.2312	-67.9000	-23.0000;
	972	21	0.000257	0.001165	0.002	405	405	405	1	0	1	0	0	77.8160	31.0475	-77.8000	-31.2000;
	476	22	0.005709	0.037926	0.0688	492	492	492	1	0	1	0	0	-8.7261	-0.4404	8.7306	-7.0679;
	1497	22	0.001758	0.011654	0.0208	492	492	492	1	0	1	0	0	114.5439	14.8606	-114.3306	-15.7321;
	69	23	0.001383	0.009462	0.0172	463	463	463	1	0	1	0	0	105.3168	22.1278	-105.1708	-23.0158;
	446	23	0.00156	0.006933	0.0121	432	432	432	1	0	1	0	0	-140.5432	-27.4174	140.8374	27.4065;
	605	23	0.006376	0.028733	0.0506	432	432	432	1	0	1	0	0	136.1061	-25.8015	-134.9978	25.2559;
	987	23	0.00158	0.010627	0.0192	481	481	481	1	0	1	0	0	-58.1680	30.6669	58.2312	-32.3466;
	845	25	0.001086	0.003536	0.3766	506	506	506	1	0	1	0	0	56.2323	-33.9814	-56.2000	-8.1000;
	845	26	0.001086	0.003536	0.3766	506	506	506	1	0	1	0	0	29.3104	-35.7659	-29.3000	-6.4000;
	123	27	0.004741	0.020385	0.0334	0	0	0	1	0	1	0	0	16.0297	12.1425	-16.0103	-15.7514;
	1479	27	0.009027	0.048869	0.084	351	351	351	1	0	1	0	0	91.1919	16.7388	-90.4951	-22.3716;
	1500	27	0.003516	0.016257	0.0273	311	311	311	1	0	1	0	0	-4.4048	-3.1266	4.4055	0.1231;
	289	28	0.000514	0.003417	0.0278	452	452	452	1	0	1	0	0	-58.5592	-0.5365	58.5748	-2.5168;
	307	28	0.001084	0.007198	0.0132	448	448	448	1	0	1	0	0	169.6303	19.5290	-169.3533	-19.1931;
	1451	28	0.000523	0.002436	0.0167	348	348	348	1	0	1	0	0	-121.4862	-13.8329	121.5550	12.2585;
	289	28	0.000514	0.003457	0.0203	356	356	356	1	0	1	0	0	-57.8981	-0.2211	57.9132	-1.9817;
	307	28	0.001086	0.007249	0.0132	540	540	540	1	0	1	0	0	168.4407	19.5177	-168.1671	-19.1943;
	1450	28	0.000553	0.002469	0.0157	405	405	405	1	0	1	0	0	-95.0398	-11.4224	95.0844	9.8397;
	307	28	0.001086	0.007269	0.0132	540	540	540	1	0	1	0	0	167.9793	19.5308	-167.7071	-19.2123;
	842	31	0.001837	0.011694	0.0759	467	467	467	1	0	1	0	0	-236.0322	-41.5738	236.9745	39.0539;
	960	31	0.001067	0.007131	0.0132	413	413	413	1	0	1	0	0	-1.9000	-1.3000	1.9000	-0.1931;
	1269	31	0.001284	0.008593	0.0152	541	541	541	1	0	1	0	0	-42.0952	16.3641	42.1186	-17.9284;
	1270	31	0.001284	0.008593	0.0162	541	541	541	1	0	1	0	0	158.3309	26.4168	-158.0401	-26.3106;
	1270	31	0.001284	0.008533	0.0162	541	541	541	1	0	1	0	0	159.4478	26.4410	-159.1530	-26.3217;
	212	33	0.000494	0.000928	0.0699	0	0	0	1	0	1	0	0	-26.8000	0.9000	26.8032	-8.8392;
	326	33	0.000184	0.00159	0.1661	422	422	422	1	0	1	0	0	-340.9454	-4.2622	341.1338	-12.9820;
	1153	33	0.000198	0.001711	0.1711	385	385	385	1	0	1	0	0	254.1790	-5.5045	-254.0665	-12.9832;
	1170	33	0.000751	0.003358	0.1534	385	385	385	1	0	1	0	0	247.4775	-30.3395	-247.0705	14.7044;
	344	2013	0.000178	0.001047	0.1499	452	452	452	1	0	1	0	0	123.7737	-15.5739	-123.7495	-1.2573;
	489	34	0.000119	0.000474	0.0688	452	452	452	1	0	1	0	0	89.4098	22.4171	-89.4000	-29.6000;
	955	2013	0.000316	0.002232	0.2774	452	452	452	1	0	1	0	0	-123.7060	-32.3346	123.7495	1.2573;
	1257	35	0.037227	0.106836	0.0328	0	0	0	1	0	1	0	0	24.1018	2.6213	-23.9094	-5.8413;
	1439	35	0.006089	0.020756	0.0067	0	0	0	1	0	1	0	0	-13.5971	-6.9595	13.6094	6.2413;
	846	36	0.000729	0.005118	0.0933	389	389	389	1	0	1	0	0	-216.3910	13.9064	216.7076	-21.8267;
	846	36	0.000755	0.005235	0.0909	419	419	419	1	0	1	0	0	-211.4691	13.9776	211.7823	-21.6877;
	228	37	0.001787	0.01946	0.4214	1579	1579	1579	1	0	1	0	0	-58.4876	-11.4359	58.5451	-34.5720;
	477	38	0.001719	0.00877	0.0157	321	321	321	1	0	1	0	0	-7.7426	7.8392	7.7449	-9.4426;
	1179	38	0.009165	0.04318	0.077	321	321	321	1	0	1	0	0	154.0060	11.1106	-151.9449	-9.4574;
	134	39	0.004879	0.032454	0.0602	487	487	487	1	0	1	0	0	-123.5000	-26.5000	124.2034	24.4984;
	195	39	0.006341	0.042746	0.0785	418	418	418	1	0	1	0	0	-135.5000	-19.2000	136.5802	17.7881;
	208	39	0.006914	0.031249	0.0547	327	327	327	1	0	1	0	0	47.1289	-33.9851	-46.9311	28.7668;
	296	40	0.000582	0.007652	0.2643	2487	2487	2487	1	0	1	0	0	85.9062	-71.4478	-85.8530	41.5934;
	766	40	0.001648	0.021634	0.748	2487	2487	2487	1	0	1	0	0	700.9524	-15.6170	-694.0531	18.8427;
	950	40	0.000838	0.014301	0.5198	2487	2487	2487	1	0	1	0	0	635.3594	167.1538	-632.3148	-177.0477;
	1282	40	0.001163	0.015312	0.5285	2487	2487	2487	1	0	1	0	0	-723.9270	-4.7584	729.2802	14.4656;
	296	40	0.000575	0.007576	0.2614	2487	2487	2487	1	0	1	0	0	86.7781	-71.8315	-86.7245	42.3194;
	766	40	0.001646	0.021633	0.7479	2487	2487	2487	1	0	1	0	0	700.9870	-15.5476	-694.0954	18.7905;
	950	40	0.000838	0.014287	0.5198	2487	2487	2487	1	0	1	0	0	635.9912	167.3116	-632.9407	-177.1549;
	1281	40	0.00117	0.015339	0.5285	2487	2487	2487	1	0	1	0	0	-765.6577	2.3040	771.6866	15.9695;
	1282	40	0.001821	0.017874	0.4318	1382	1382	1382	1	0	1	0	0	-617.9829	12.9741	624.1061	-2.5251;
	558	41	0.000672	0.003477	0.0365	254	254	254	1	0	1	0	0	64.7261	8.6944	-64.7000	-12.6000;
	1420	42	0.000632	0.004188	0.0081	471	471	471	1	0	1	0	0	44.6126	14.7787	-44.6000	-15.6000;
	1420	43	0.000612	0.004148	0.0071	471	471	471	1	0	1	0	0	46.9128	10.9935	-46.9000	-11.7000;
	1040	44	0.000672	0.004405	0.0081	541	541	541	1	0	1	0	0	144.0041	24.3183	-143.8791	-24.4259;
	1521	44	0.000968	0.004602	0.0081	304	304	304	1	0	1	0	0	94.9171	11.8197	-94.8397	-12.3789;
	1040	44	0.000632	0.004444	0.0081	440	440	440	1	0	1	0	0	142.6971	25.5829	-142.5812	-25.6952;
	1524	45	0.001975	0.013215	0.0243	541	541	541	1	0	1	0	0	49.7576	-11.8948	-49.7127	9.4347;
	1525	45	0.001956	0.013037	0.0243	0	0	0	1	0	1	0	0	112.0183	-30.2837	-111.7873	29.0653;
	1321	46	0.002933	0.010267	0.0032	0	0	0	1	0	1	0	0	9.8392	7.7870	-9.8353	-8.1661;
	1429	46	0.0028	0.007511	0.0022	0	0	0	1	0	1	0	0	-30.2262	9.3694	30.2491	-9.5774;
	49	48	2e-05	0.000198	0.0121	261	261	261	1	0	1	0	0	0.0000	-1.3431	-0.0000	-0.0000;
	49	47	2e-05	0.000198	0.0142	261	261	261	1	0	1	0	0	0.0000	-1.5761	-0.0000	-0.0000;
	277	49	0.000277	0.000928	0.2066	0	0	0	1	0	1	0	0	-78.6765	-18.2711	78.6920	-4.6027;
	298	49	0.002037	0.010904	0.0187	352	352	352	1	0	1	0	0	-50.5341	-12.5308	50.5836	10.7245;
	318	49	0.000415	0.002015	0.1266	428	428	428	1	0	1	0	0	-95.0262	-6.8553	95.0600	-7.0278;
	370	49	0.000395	0.00156	0.1893	426	426	426	1	0	1	0	0	-331.8858	-59.1558	332.2878	39.7711;
	608	49	4e-05	0.000178	0.0152	0	0	0	1	0	1	0	0	138.8000	1.2545	-138.7931	-2.9108;
	836	49	0.001323	0.012444	0.0678	935	935	935	1	0	1	0	0	281.5689	28.8596	-280.6235	-27.5420;
	1227	49	0.000454	0.002133	0.2511	268	268	268	1	0	1	0	0	-116.5000	-21.2000	116.5558	-6.3917;
	1381	49	0.000119	0.000691	0.1002	387	387	387	1	0	1	0	0	-228.1847	-29.0836	228.2412	18.2941;
	1411	49	0.00083	0.005175	0.0203	323	323	323	1	0	1	0	0	-83.8159	-22.8500	83.8721	20.9512;
	277	49	0.000277	0.000928	0.2086	0	0	0	1	0	1	0	0	-78.6765	-18.3821	78.6920	-4.7136;
	836	49	0.001314	0.012115	0.0673	943	943	943	1	0	1	0	0	289.2199	29.1543	-288.2297	-27.5435;
	1379	49	5.9e-05	0.000217	0.0496	323	323	323	1	0	1	0	0	242.0000	21.4590	-241.9686	-26.8498;
	1378	49	5.9e-05	0.000217	0.0466	323	323	323	1	0	1	0	0	237.9000	17.5780	-237.8697	-22.6399;
	1169	50	0.000158	0.000948	0.002	348	348	348	1	0	1	0	0	10.0002	3.4738	-10.0000	-3.7000;
	704	51	0.001521	0.007076	0.0118	302	302	302	1	0	1	0	0	0.0000	0.0000	0.0000	-1.3195;
	1265	51	0.002469	0.011457	0.0203	315	315	315	1	0	1	0	0	-55.8897	6.4533	55.9600	-8.3960;
	404	52	0.001442	0.009699	0.0172	566	566	566	1	0	1	0	0	29.7413	7.4431	-29.7286	-9.2253;
	427	52	0.001422	0.009541	0.0172	566	566	566	1	0	1	0	0	44.9020	17.1106	-44.8714	-18.7747;
	459	53	0.004681	0.028227	0.0516	440	440	440	1	0	1	0	0	-177.9698	-17.4095	179.3058	19.6313;
	765	53	0.001185	0.008	0.0152	575	575	575	1	0	1	0	0	52.5453	10.4104	-52.5154	-11.9507;
	1529	53	0.005333	0.02722	0.0491	440	440	440	1	0	1	0	0	-75.2139	-13.4225	75.4862	9.2287;
	766	54	0.000145	0.001911	0.0661	2487	2487	2487	1	0	1	0	0	-168.6318	-256.4839	168.7456	250.1795;
	1417	54	0.000253	0.003323	0.1148	2487	2487	2487	1	0	1	0	0	532.4820	327.7684	-531.6550	-330.6605;
	1101	56	0.000494	0.002252	0.004	406	406	406	1	0	1	0	0	14.7009	-1.4489	-14.7000	1.0000;
	1101	55	0.000494	0.002252	0.004	406	406	406	1	0	1	0	0	31.0047	10.5684	-31.0000	-11.0000;
	97	1827	0.004563	0.030696	0.0557	541	541	541	1	0	1	0	0	293.7234	-18.0496	-290.2086	35.4681;
	320	1827	0.009857	0.04478	0.077	405	405	405	1	0	1	0	0	-137.1180	29.1281	138.8839	-29.6703;
	813	1827	0.017106	0.078321	0.1387	362	362	362	1	0	1	0	0	119.7701	-16.7047	-117.5898	11.1234;
	1287	1827	0.010272	0.048691	0.0866	354	354	354	1	0	1	0	0	-67.2389	21.1946	67.7145	-28.6211;
	461	57	0.012978	0.059338	0.1002	409	409	409	1	0	1	0	0	-16.9883	-3.6844	17.0209	-7.8581;
	827	57	0.01197	0.056632	0.0942	262	262	262	1	0	1	0	0	74.5935	-13.1857	-74.0209	4.8581;
	1429	58	0.000578	0.001156	0.0004	0	0	0	1	0	1	0	0	-1.2094	-11.1069	1.2100	11.0591;
	1090	60	0.000316	0.001679	0.0192	0	0	0	1	0	1	0	0	55.7129	39.4388	-55.7000	-41.6000;
	1090	59	0.000316	0.001679	0.0192	0	0	0	1	0	1	0	0	55.4093	17.5189	-55.4000	-19.7000;
	713	61	0.000277	0.000573	0.0334	0	0	0	1	0	1	0	0	-92.7893	1.2694	92.8100	-5.0840;
	1032	62	0.001055	0.004836	0.0081	432	432	432	1	0	1	0	0	16.4027	4.0072	-16.4000	-4.9000;
	998	63	0.002114	0.008553	0.0152	346	346	346	1	0	1	0	0	-23.3885	-9.9774	23.4000	8.2584;
	342	65	0.000158	0.000652	0.084	0	0	0	1	0	1	0	0	54.7042	3.8806	-54.7000	-13.6000;
	894	64	0.000198	0.000731	0.0942	385	385	385	1	0	1	0	0	29.7016	1.1306	-29.7000	-12.0000;
	1265	66	0.00324	0.012616	0.0225	302	302	302	1	0	1	0	0	-21.8850	-7.5584	21.9000	5.1000;
	1397	67	0.007522	0.029736	0.0496	303	303	303	1	0	1	0	0	57.7264	-6.6633	-57.5101	1.7614;
	1543	67	0.006809	0.03043	0.0521	380	380	380	1	0	1	0	0	-28.2621	-6.5396	28.3101	0.7386;
	404	69	0.002153	0.014736	0.0273	565	565	565	1	0	1	0	0	-142.2251	-26.3731	142.6380	26.2134;
	469	68	0.000581	0.003838	0.0071	507	507	507	1	0	1	0	0	-61.3000	-19.4000	61.3212	18.7361;
	791	68	0.001857	0.020306	0.0557	566	566	566	1	0	1	0	0	53.4703	-11.2755	-53.4223	5.4930;
	1348	69	0.002331	0.015526	0.0278	549	549	549	1	0	1	0	0	-146.5382	-30.5445	147.0179	30.7022;
	1480	68	0.001345	0.008968	0.0162	566	566	566	1	0	1	0	0	-264.2351	-49.3836	265.1043	53.3569;
	470	68	0.000573	0.003911	0.0071	415	415	415	1	0	1	0	0	-39.2000	-10.6000	39.2083	9.8526;
	640	68	0.001896	0.012701	0.0233	501	501	501	1	0	1	0	0	-260.2007	-47.3541	261.3929	52.7266;
	556	70	0.000602	0.006717	0.1357	1725	1725	1725	1	0	1	0	0	-561.0642	-14.4183	562.7222	17.3455;
	792	70	0.00063	0.007098	0.1588	1916	1916	1916	1	0	1	0	0	308.5589	23.0893	-308.0362	-35.5583;
	1421	70	0.000367	0.004631	0.1126	2275	2275	2275	1	0	1	0	0	184.7314	-32.6811	-184.6204	21.1165;
	792	70	0.000472	0.006201	0.2137	2487	2487	2487	1	0	1	0	0	353.0665	29.0515	-352.5523	-47.0013;
	1416	70	0.001504	0.019298	0.4577	2275	2275	2275	1	0	1	0	0	722.9441	111.9732	-716.2103	-79.6467;
	203	72	0.000158	0.001106	0.1357	461	461	461	1	0	1	0	0	206.7035	-56.7221	-206.6408	41.7130;
	375	71	0.000219	0.00193	0.1954	407	407	407	1	0	1	0	0	-226.5527	-53.3610	226.6593	32.9299;
	403	71	0.000158	0.000909	0.1316	428	428	428	1	0	1	0	0	15.2289	-6.1513	-15.2286	-8.2573;
	982	71	0.000411	0.00356	0.3564	416	416	416	1	0	1	0	0	288.0428	2.5825	-287.7307	-38.9726;
	1104	72	0.000158	0.001264	0.1286	416	416	416	1	0	1	0	0	-177.5949	32.4355	177.6408	-46.7130;
	842	73	0.000198	0.001383	0.003	420	420	420	1	0	1	0	0	-61.9731	5.8655	61.9800	-6.1513;
	842	74	0.000217	0.001402	0.003	420	420	420	1	0	1	0	0	-61.9724	5.8719	61.9800	-6.1570;
	387	75	0.001304	0.008691	0.0152	525	525	525	1	0	1	0	0	-147.4323	19.7604	147.6933	-19.7036;
	842	75	0.000691	0.004662	0.0091	541	541	541	1	0	1	0	0	330.7739	15.0779	-330.0933	-11.4964;
	78	76	9.9e-05	0.000415	0.0456	434	434	434	1	0	1	0	0	-294.8547	-20.6896	294.9290	15.7031;
	300	77	1e-06	0.000104	0.078	1063	1063	1063	1	0	1	0	0	873.0000	147.2325	-872.9935	-155.9393;
	436	77	0.000353	0.004584	0.1184	2357	2357	2357	1	0	1	0	0	-684.6271	-145.0074	686.0804	149.7442;
	705	77	0.000699	0.009179	0.3177	2487	2487	2487	1	0	1	0	0	-486.3729	-75.7115	487.7885	56.3793;
	436	77	0.000353	0.004584	0.1184	2357	2357	2357	1	0	1	0	0	-684.6271	-145.0074	686.0804	149.7442;
	705	77	0.000734	0.009245	0.3148	2487	2487	2487	1	0	1	0	0	-482.9592	-73.5633	484.4237	54.4353;
	302	77	7e-06	0.000104	0.0029	1382	1382	1382	1	0	1	0	0	884.0000	131.2316	-883.9535	-130.8904;
	301	77	7e-06	0.000104	0.0029	1382	1382	1382	1	0	1	0	0	883.0000	171.1337	-882.9529	-170.7836;
	435	78	0.002556	0.017333	0.0805	418	418	418	1	0	1	0	0	-55.8959	-20.2211	55.9705	11.4104;
	1040	78	0.008849	0.062617	0.1144	471	471	471	1	0	1	0	0	-121.6354	3.2441	122.7841	-8.3208;
	1431	79	2.2e-05	9.9e-05	0.001	405	405	405	1	0	1	0	0	-7.4000	0.7841	7.4000	-0.9000;
	1430	80	2e-05	9.9e-05	0	0	0	0	1	0	1	0	0	14.0001	12.6003	-14.0000	-12.6000;
	745	81	0.000573	0.002588	0.0051	388	388	388	1	0	1	0	0	48.7116	2.3555	-48.7000	-2.9000;
	1432	82	2e-05	0.000198	0.001	566	566	566	1	0	1	0	0	21.3901	3.1907	-21.3900	-3.3000;
	626	83	0.000138	0.00077	0.001	272	272	272	1	0	1	0	0	61.9051	19.6134	-61.9000	-19.7000;
	181	84	0.001171	0.007842	0.0166	296	296	296	1	0	1	0	0	-167.8997	-33.7138	168.2225	34.1050;
	855	84	0.002212	0.014979	0.0388	401	401	401	1	0	1	0	0	328.5266	28.3334	-326.3225	-17.6050;
	1186	85	0.000691	0.002588	0.1691	0	0	0	1	0	1	0	0	-2.9000	2.7000	2.9009	-20.4862;
	1187	85	0.000691	0.002588	0.1509	0	0	0	1	0	1	0	0	-1.4000	2.8000	1.4008	-18.6720;
	553	86	0.001627	0.014855	0.3899	1717	1717	1717	1	0	1	0	0	189.3449	13.9030	-188.8179	-53.5071;
	553	86	0.001676	0.013899	0.4216	1711	1711	1711	1	0	1	0	0	202.5250	12.3224	-201.9063	-55.2196;
	519	87	0.003081	0.020286	0.0365	420	420	420	1	0	1	0	0	-82.3878	24.9587	82.6019	-27.4845;
	870	87	0.00241	0.01603	0.0294	440	440	440	1	0	1	0	0	192.0264	19.2155	-191.2019	-16.9155;
	1300	88	0.000176	0.001385	0.1521	378	378	378	1	0	1	0	0	-70.7000	4.2000	70.7081	-21.0813;
	1351	88	0.001817	0.012642	0.0233	440	440	440	1	0	1	0	0	105.3203	6.7757	-105.1393	-8.1184;
	1351	88	0.001865	0.012502	0.0229	502	502	502	1	0	1	0	0	106.4586	6.3144	-106.2689	-7.6003;
	283	89	0.007422	0.024489	0.0081	0	0	0	1	0	1	0	0	-18.9988	0.9272	19.0236	-1.7238;
	467	89	0.028356	0.083956	0.0274	0	0	0	1	0	1	0	0	56.7763	2.4131	-55.9580	-3.0151;
	729	89	0.016844	0.058489	0.0198	0	0	0	1	0	1	0	0	-83.0727	-7.6007	84.1892	9.3655;
	1335	89	0.009067	0.028133	0.0095	0	0	0	1	0	1	0	0	23.3000	-0.5350	-23.2548	-0.3584;
	1433	90	0.000593	0.00401	0.0071	471	471	471	1	0	1	0	0	56.6209	22.5889	-56.6000	-23.2000;
	376	91	0.010351	0.032395	0.0562	0	0	0	1	0	1	0	0	119.9637	-29.8947	-118.5824	27.8730;
...
];

%%-----  OPF Data  -----%%
%% generator cost data
%	1	startup	shutdown	n	x1	y1	...	xn	yn
%	2	startup	shutdown	n	c(n-1)	...	c0
mpc.gencost = [
	2	0	0	3	0	1	0;
	2	0	0	3	0	1	0;
	2	0	0	3	0	1	0;
	2	0	0	3	0	1	0;
	2	0	0	3	0	1	0;
	2	0	0	3	0	1	0;
	2	0	0	3	0	1	0;
	2	0	0	3	0	1	0;
	2	0	0	3	0	1	0;
	2	0	0	3	0	1	0;
	2	0	0	3	0	1	0;
	2	0	0	3	0	1	0;
	2	0	0	3	0	2	0;
	2	0	0	3	0	2	0;
	2	0	0	3	0	1	0;
	2	0	0	3	0	1	0;
	2	0	0	3	0	1	0;
	2	0	0	3	0	1	0;
	2	0	0	3	0	1	0;
	2	0	0	3	0	1	0;
	2	0	0	3	0	1	0;
	2	0	0	3	0	2	0;
	2	0	0	3	0	2	0;
	2	0	0	3	0	2	0;
	2	0	0	3	0	2	0;
	2	0	0	3	0	1	0;
	2	0	0	3	0	1	0;
	2	0	0	3	0	1	0;
	2	0	0	3	0	1	0;
	2	0	0	3	0	1	0;
	2	0	0	3	0	1	0;
	2	0	0	3	0	1	0;
	2	0	0	3	0	1	0;
	2	0	0	3	0	1	0;
	2	0	0	3	0	2	0;
	2	0	0	3	0	1	0;
	2	0	0	3	0	1	0;
	2	0	0	3	0	1	0;
	2	0	0	3	0	1	0;
	2	0	0	3	0	1	0;
	2	0	0	3	0	1	0;
	2	0	0	3	0	1	0;
	2	0	0	3	0	1	0;
	2	0	0	3	0	1	0;
	2	0	0	3	0	2	0;
	2	0	0	3	0	1	0;
	2	0	0	3	0	1	0;
	2	0	0	3	0	2	0;
	2	0	0	3	0	1	0;
	2	0	0	3	0	1	0;
	2	0	0	3	0	1	0;
	2	0	0	3	0	1	0;
	2	0	0	3	0	1	0;
	2	0	0	3	0	1	0;
	2	0	0	3	0	1	0;
	2	0	0	3	0	1	0;
	2	0	0	3	0	1	0;
	2	0	0	3	0	1	0;
	2	0	0	3	0	1	0;
	2	0	0	3	0	1	0;
	2	0	0	3	0	1	0;
	2	0	0	3	0	1	0;
	2	0	0	3	0	1	0;
	2	0	0	3	0	1	0;
	2	0	0	3	0	1	0;
	2	0	0	3	0	1	0;
	2	0	0	3	0	1	0;
	2	0	0	3	0	1	0;
	2	0	0	3	0	1	0;
	2	0	0	3	0	1	0;
	2	0	0	3	0	1	0;
	2	0	0	3	0	1	0;
	2	0	0	3	0	1	0;
	2	0	0	3	0	1	0;
	2	0	0	3	0	1	0;
	2	0	0	3	0	1	0;
	2	0	0	3	0	1	0;
	2	0	0	3	0	1	0;
	2	0	0	3	0	1	0;
	2	0	0	3	0	1	0;
	2	0	0	3	0	1	0;
	2	0	0	3	0	1	0;
	2	0	0	3	0	1	0;
	2	0	0	3	0	1	0;
	2	0	0	3	0	1	0;
	2	0	0	3	0	1	0;
	2	0	0	3	0	1	0;
	2	0	0	3	0	1	0;
	2	0	0	3	0	1	0;
	2	0	0	3	0	1	0;
	2	0	0	3	0	1	0;
	2	0	0	3	0	1	0;
	2	0	0	3	0	1	0;
	2	0	0	3	0	1	0;
	2	0	0	3	0	1	0;
	2	0	0	3	0	1	0;
	2	0	0	3	0	1	0;
	2	0	0	3	0	1	0;
	2	0	0	3	0	1	0;
	2	0	0	3	0	1	0;
	2	0	0	3	0	1	0;
	2	0	0	3	0	1	0;
	2	0	0	3	0	1	0;
	2	0	0	3	0	1	0;
	2	0	0	3	0	1	0;
	2	0	0	3	0	1	0;
	2	0	0	3	0	1	0;
	2	0	0	3	0	1	0;
	2	0	0	3	0	1	0;
	2	0	0	3	0	1	0;
	2	0	0	3	0	1	0;
	2	0	0	3	0	1	0;
	2	0	0	3	0	1	0;
	2	0	0	3	0	1	0;
	2	0	0	3	0	1	0;
	2	0	0	3	0	1	0;
	2	0	0	3	0	1	0;
	2	0	0	3	0	1	0;
	2	0	0	3	0	1	0;
	2	0	0	3	0	1	0;
	2	0	0	3	0	1	0;
	2	0	0	3	0	1	0;
	2	0	0	3	0	1	0;
	2	0	0	3	0	1	0;
	2	0	0	3	0	2	0;
	2	0	0	3	0	2	0;
	2	0	0	3	0	1	0;
	2	0	0	3	0	1	0;
	2	0	0	3	0	1	0;
	2	0	0	3	0	1	0;
	2	0	0	3	0	1	0;
	2	0	0	3	0	1	0;
	2	0	0	3	0	1	0;
	2	0	0	3	0	1	0;
	2	0	0	3	0	1	0;
	2	0	0	3	0	1	0;
	2	0	0	3	0	1	0;
	2	0	0	3	0	1	0;
	2	0	0	3	0	1	0;
	2	0	0	3	0	1	0;
	2	0	0	3	0	1	0;
	2	0	0	3	0	1	0;
	2	0	0	3	0	1	0;
	2	0	0	3	0	1	0;
	2	0	0	3	0	1	0;
	2	0	0	3	0	1	0;
	2	0	0	3	0	2	0;
	2	0	0	3	0	2	0;
	2	0	0	3	0	1	0;
	2	0	0	3	0	1	0;
	2	0	0	3	0	1	0;
	2	0	0	3	0	1	0;
	2	0	0	3	0	1	0;
	2	0	0	3	0	1	0;
	2	0	0	3	0	1	0;
	2	0	0	3	0	1	0;
	2	0	0	3	0	1	0;
	2	0	0	3	0	1	0;
	2	0	0	3	0	1	0;
	2	0	0	3	0	1	0;
	2	0	0	3	0	1	0;
	2	0	0	3	0	1	0;
	2	0	0	3	0	1	0;
	2	0	0	3	0	1	0;
	2	0	0	3	0	1	0;
	2	0	0	3	0	1	0;
	2	0	0	3	0	1	0;
	2	0	0	3	0	1	0;
	2	0	0	3	0	1	0;
	2	0	0	3	0	1	0;
	2	0	0	3	0	1	0;
	2	0	0	3	0	1	0;
	2	0	0	3	0	1	0;
	2	0	0	3	0	1	0;
	2	0	0	3	0	1	0;
	2	0	0	3	0	1	0;
	2	0	0	3	0	1	0;
	2	0	0	3	0	1	0;
	2	0	0	3	0	1	0;
	2	0	0	3	0	1	0;
	2	0	0	3	0	1	0;
	2	0	0	3	0	1	0;
	2	0	0	3	0	1	0;
	2	0	0	3	0	1	0;
	2	0	0	3	0	1	0;
	2	0	0	3	0	1	0;
	2	0	0	3	0	1	0;
	2	0	0	3	0	1	0;
	2	0	0	3	0	1	0;
	2	0	0	3	0	1	0;
	2	0	0	3	0	1	0;
	2	0	0	3	0	1	0;
	2	0	0	3	0	1	0;
	2	0	0	3	0	1	0;
	2	0	0	3	0	1	0;
	2	0	0	3	0	1	0;
	2	0	0	3	0	2	0;
	2	0	0	3	0	2	0;
	2	0	0	3	0	1	0;
	2	0	0	3	0	1	0;
...
];
